Version 4
SHEET 1 968 680
WIRE 96 -176 96 -192
WIRE 96 -80 -16 -80
WIRE 240 -80 96 -80
WIRE 384 -80 240 -80
WIRE 544 -80 384 -80
WIRE -96 -64 -192 -64
WIRE -80 -64 -96 -64
WIRE 16 -48 -16 -48
WIRE -96 0 -96 -64
WIRE 16 0 16 -48
WIRE 16 0 -96 0
WIRE -192 16 -192 -64
WIRE -192 112 -192 96
WIRE -96 112 -192 112
WIRE 0 112 -96 112
WIRE 96 112 0 112
WIRE 192 112 96 112
WIRE 288 112 192 112
WIRE 384 112 288 112
WIRE 480 112 384 112
WIRE 576 112 480 112
WIRE 672 112 576 112
WIRE 768 112 672 112
WIRE 864 112 768 112
WIRE -192 192 -192 176
WIRE -96 192 -96 176
WIRE -96 192 -192 192
WIRE 0 192 0 176
WIRE 0 192 -96 192
WIRE 96 192 96 176
WIRE 96 192 0 192
WIRE 192 192 192 176
WIRE 192 192 96 192
WIRE 288 192 288 176
WIRE 288 192 192 192
WIRE 384 192 384 176
WIRE 384 192 288 192
WIRE 480 192 480 176
WIRE 480 192 384 192
WIRE 576 192 576 176
WIRE 576 192 480 192
WIRE 672 192 672 176
WIRE 672 192 576 192
WIRE 768 192 768 176
WIRE 768 192 672 192
WIRE 864 192 864 176
WIRE 864 192 768 192
WIRE 896 192 864 192
WIRE -192 208 -192 192
WIRE -96 208 -96 192
WIRE 0 208 0 192
WIRE 96 208 96 192
WIRE 192 208 192 192
WIRE 288 208 288 192
WIRE 384 208 384 192
WIRE 480 208 480 192
WIRE 576 208 576 192
WIRE 672 208 672 192
WIRE 768 208 768 192
FLAG -192 288 0
FLAG -96 288 0
FLAG 0 288 0
FLAG 96 288 0
FLAG 192 288 0
FLAG 288 288 0
FLAG 384 288 0
FLAG 480 288 0
FLAG 576 288 0
FLAG 672 288 0
FLAG 768 288 0
FLAG 864 288 0
FLAG 896 192 out
FLAG 96 64 0
FLAG 240 64 0
FLAG 384 64 0
FLAG 544 64 0
FLAG -192 -64 E
FLAG 96 -192 +15
SYMBOL res -208 192 R0
SYMATTR InstName R21
SYMBOL res -112 192 R0
SYMATTR InstName R22
SYMBOL res -16 192 R0
SYMATTR InstName R23
SYMBOL res 80 192 R0
SYMATTR InstName R24
SYMBOL res 176 192 R0
SYMATTR InstName R25
SYMBOL res 272 192 R0
SYMATTR InstName R26
SYMBOL res 368 192 R0
SYMATTR InstName R27
SYMBOL res 464 192 R0
SYMATTR InstName R28
SYMBOL res 560 192 R0
SYMATTR InstName R29
SYMBOL res 656 192 R0
SYMATTR InstName R210
SYMBOL res 752 192 R0
SYMATTR InstName R211
SYMBOL res 848 192 R0
SYMATTR InstName R212
SYMBOL mysym\\interruptor -192 144 R90
SYMATTR InstName X1
SYMBOL mysym\\interruptor -96 144 R90
SYMATTR InstName X2
SYMBOL mysym\\interruptor 0 144 R90
SYMATTR InstName X3
SYMBOL mysym\\interruptor 96 144 R90
SYMATTR InstName X4
SYMBOL mysym\\interruptor 192 144 R90
SYMATTR InstName X5
SYMBOL mysym\\interruptor 288 144 R90
SYMATTR InstName X6
SYMBOL mysym\\interruptor 384 144 R90
SYMATTR InstName X8
SYMBOL mysym\\interruptor 480 144 R90
SYMATTR InstName X9
SYMBOL mysym\\interruptor 576 144 R90
SYMATTR InstName X10
SYMBOL mysym\\interruptor 672 144 R90
SYMATTR InstName X11
SYMBOL mysym\\interruptor 768 144 R90
SYMATTR InstName X12
SYMBOL mysym\\interruptor 864 144 R90
SYMATTR InstName X13
SYMBOL res -208 0 R0
SYMATTR InstName R1
SYMBOL Opamps\\opamp -48 0 R180
SYMATTR InstName U1
SYMBOL mysym\\interruptor 96 -48 R90
SYMATTR InstName X7
SYMBOL mysym\\interruptor 240 -48 R90
SYMATTR InstName X14
SYMBOL mysym\\interruptor 384 -48 R90
SYMATTR InstName X15
SYMBOL mysym\\interruptor 544 -48 R90
SYMATTR InstName X16
SYMBOL res 80 -192 R0
SYMATTR InstName Ra
SYMBOL mysym\\pot 96 16 R270
WINDOW 3 -9 34 VCenter 2
WINDOW 0 -66 -47 VRight 2
SYMATTR InstName P1
SYMBOL mysym\\pot 240 16 R270
WINDOW 3 -9 34 VCenter 2
WINDOW 0 -66 -47 VRight 2
SYMATTR InstName P2
SYMBOL mysym\\pot 384 16 R270
WINDOW 3 -11 43 VCenter 2
WINDOW 0 -66 -47 VRight 2
SYMATTR InstName P3
SYMBOL mysym\\pot 544 16 R270
WINDOW 3 -9 34 VCenter 2
WINDOW 0 -66 -47 VRight 2
SYMATTR InstName P4
