Version 4
SHEET 1 1788 680
WIRE 96 -160 96 -176
WIRE 96 -80 -16 -80
WIRE 240 -80 96 -80
WIRE 384 -80 240 -80
WIRE 544 -80 384 -80
WIRE -96 -64 -192 -64
WIRE -80 -64 -96 -64
WIRE 16 -48 -16 -48
WIRE -192 -16 -192 -64
WIRE -192 -16 -288 -16
WIRE -96 0 -96 -64
WIRE 16 0 16 -48
WIRE 16 0 -96 0
WIRE -288 16 -288 -16
WIRE -192 16 -192 -16
WIRE 1216 32 1088 32
WIRE 1088 80 1088 32
WIRE 1120 80 1088 80
WIRE 1216 96 1216 32
WIRE 1216 96 1184 96
WIRE 1360 96 1216 96
WIRE 1648 96 1440 96
WIRE 1728 96 1648 96
WIRE -192 112 -192 96
WIRE -96 112 -192 112
WIRE 0 112 -96 112
WIRE 96 112 0 112
WIRE 192 112 96 112
WIRE 288 112 192 112
WIRE 384 112 288 112
WIRE 480 112 384 112
WIRE 576 112 480 112
WIRE 672 112 576 112
WIRE 768 112 672 112
WIRE 864 112 768 112
WIRE 1008 112 864 112
WIRE 1120 112 1008 112
WIRE -192 128 -192 112
WIRE -96 128 -96 112
WIRE 0 128 0 112
WIRE 96 128 96 112
WIRE 192 128 192 112
WIRE 288 128 288 112
WIRE 384 128 384 112
WIRE 480 128 480 112
WIRE 576 128 576 112
WIRE 672 128 672 112
WIRE 768 128 768 112
WIRE 864 128 864 112
WIRE -288 144 -288 96
WIRE -288 144 -368 144
WIRE 1376 160 1376 144
WIRE -192 192 -192 176
WIRE -96 192 -96 176
WIRE 0 192 0 176
WIRE 96 192 96 176
WIRE 192 192 192 176
WIRE 288 192 288 176
WIRE 384 192 384 176
WIRE 480 192 480 176
WIRE 576 192 576 176
WIRE 672 192 672 176
WIRE 768 192 768 176
WIRE 864 192 864 176
WIRE -288 208 -288 144
WIRE -192 208 -192 192
WIRE -96 208 -96 192
WIRE 0 208 0 192
WIRE 96 208 96 192
WIRE 192 208 192 192
WIRE 288 208 288 192
WIRE 384 208 384 192
WIRE 480 208 480 192
WIRE 576 208 576 192
WIRE 672 208 672 192
WIRE 768 208 768 192
WIRE 864 208 864 192
WIRE 1008 224 1008 112
WIRE 1088 224 1008 224
WIRE 1424 240 1424 144
WIRE 1424 240 1168 240
WIRE 1472 240 1424 240
WIRE 1568 240 1552 240
WIRE 1088 256 1008 256
WIRE -368 368 -368 144
WIRE 1008 368 1008 256
WIRE 1008 368 -368 368
FLAG -192 288 0
FLAG -96 288 0
FLAG 0 288 0
FLAG 96 288 0
FLAG 192 288 0
FLAG 288 288 0
FLAG 384 288 0
FLAG 480 288 0
FLAG 576 288 0
FLAG 672 288 0
FLAG 768 288 0
FLAG 864 288 0
FLAG 96 64 0
FLAG 240 64 0
FLAG 384 64 0
FLAG 544 64 0
FLAG -192 -64 E
FLAG 96 -176 +15
FLAG -288 288 0
FLAG 1568 240 +15
FLAG 1376 160 0
FLAG -288 144 E+
FLAG 1008 112 E-
FLAG 1648 176 0
FLAG 1728 96 out
FLAG 1120 192 Vcc
FLAG 1120 288 Vee
FLAG 1104 288 0
SYMBOL res -208 192 R0
SYMATTR InstName R21
SYMATTR Value ""
SYMBOL res -112 192 R0
SYMATTR InstName R22
SYMATTR Value ""
SYMBOL res -16 192 R0
SYMATTR InstName R23
SYMATTR Value ""
SYMBOL res 80 192 R0
SYMATTR InstName R24
SYMATTR Value ""
SYMBOL res 176 192 R0
SYMATTR InstName R25
SYMATTR Value ""
SYMBOL res 272 192 R0
SYMATTR InstName R26
SYMATTR Value ""
SYMBOL res 368 192 R0
SYMATTR InstName R27
SYMATTR Value ""
SYMBOL res 464 192 R0
SYMATTR InstName R28
SYMATTR Value ""
SYMBOL res 560 192 R0
SYMATTR InstName R29
SYMATTR Value ""
SYMBOL res 656 192 R0
SYMATTR InstName R210
SYMATTR Value ""
SYMBOL res 752 192 R0
SYMATTR InstName R211
SYMATTR Value ""
SYMBOL res 848 192 R0
SYMATTR InstName R212
SYMATTR Value ""
SYMBOL res -208 0 R0
SYMATTR InstName R1
SYMBOL Opamps\\opamp -48 0 R180
SYMATTR InstName U1
SYMBOL res 80 -176 R0
SYMATTR InstName Ra
SYMBOL res -304 0 R0
SYMATTR InstName R2
SYMATTR Value 1k
SYMBOL res -304 192 R0
SYMATTR InstName R3
SYMATTR Value 3.9k
SYMBOL Comparators\\LT1011 1120 240 R0
SYMATTR InstName U2
SYMBOL res 1456 256 R270
WINDOW 0 32 56 VTop 2
WINDOW 3 0 56 VBottom 2
SYMATTR InstName R4
SYMATTR Value 1k
SYMBOL sw 1344 96 R270
SYMATTR InstName S1
SYMBOL Opamps\\opamp 1152 32 R0
SYMATTR InstName U3
SYMBOL res 1632 80 R0
SYMATTR InstName R5
SYMATTR Value 1k
SYMBOL mysym\\pot 96 16 R270
WINDOW 3 -9 34 Invisible 2
SYMATTR InstName P1
SYMBOL mysym\\pot 240 16 R270
WINDOW 3 -9 34 Invisible 2
SYMATTR InstName P2
SYMBOL mysym\\pot 384 16 R270
WINDOW 3 -9 34 Invisible 2
SYMATTR InstName P3
SYMBOL mysym\\pot 544 16 R270
WINDOW 3 -9 34 Invisible 2
SYMATTR InstName P4
SYMBOL mysym\\interruptor -192 160 R90
SYMATTR InstName X1
SYMBOL mysym\\interruptor -96 160 R90
SYMATTR InstName X2
SYMBOL mysym\\interruptor 0 160 R90
SYMATTR InstName X3
SYMBOL mysym\\interruptor 96 160 R90
SYMATTR InstName X4
SYMBOL mysym\\interruptor 192 160 R90
SYMATTR InstName X5
SYMBOL mysym\\interruptor 288 160 R90
SYMATTR InstName X6
SYMBOL mysym\\interruptor 384 160 R90
SYMATTR InstName X7
SYMBOL mysym\\interruptor 480 160 R90
SYMATTR InstName X8
SYMBOL mysym\\interruptor 576 160 R90
SYMATTR InstName X9
SYMBOL mysym\\interruptor 672 160 R90
SYMATTR InstName X10
SYMBOL mysym\\interruptor 768 160 R90
SYMATTR InstName X11
SYMBOL mysym\\interruptor 864 160 R90
SYMATTR InstName X12
SYMBOL mysym\\interruptor 96 -48 R90
SYMATTR InstName X13
SYMBOL mysym\\interruptor 240 -48 R90
SYMATTR InstName X14
SYMBOL mysym\\interruptor 384 -48 R90
SYMATTR InstName X15
SYMBOL mysym\\interruptor 544 -48 R90
SYMATTR InstName X16
