Version 4
SHEET 1 948 680
WIRE -352 -16 -432 -16
WIRE -432 16 -432 -16
WIRE 480 112 144 112
WIRE 592 112 560 112
WIRE 624 112 592 112
WIRE 784 112 704 112
WIRE -432 128 -432 96
WIRE -352 128 -432 128
WIRE -432 160 -432 128
WIRE 720 160 672 160
WIRE 672 176 672 160
WIRE 592 192 592 112
WIRE 640 192 592 192
WIRE 784 208 784 112
WIRE 784 208 704 208
WIRE 640 224 592 224
WIRE 672 256 672 240
WIRE 720 256 672 256
WIRE -432 272 -432 240
WIRE -352 272 -432 272
WIRE 176 304 144 304
WIRE 592 304 592 224
WIRE 592 304 256 304
WIRE 192 368 192 352
FLAG 144 112 Vin
IOPIN 144 112 In
FLAG 144 304 Vin
IOPIN 144 304 In
FLAG 192 368 0
FLAG 240 352 Control
FLAG -352 -16 +Vcc
FLAG -352 272 -Vcc
FLAG -352 128 0
FLAG -176 448 0
FLAG -64 448 0
FLAG -64 368 Control
FLAG -176 368 Vin
FLAG 592 384 0
FLAG 720 160 +Vcc
FLAG 720 256 -Vcc
SYMBOL sw 160 304 R270
SYMATTR InstName S2
SYMATTR Value S2
SYMBOL voltage -432 0 R0
WINDOW 123 0 0 Left 2
WINDOW 39 0 0 Left 2
SYMATTR InstName V1
SYMATTR Value 15
SYMBOL voltage -432 144 R0
WINDOW 123 0 0 Left 2
WINDOW 39 0 0 Left 2
SYMATTR InstName V2
SYMATTR Value 15
SYMBOL voltage -176 352 R0
WINDOW 123 0 0 Left 2
WINDOW 39 0 0 Left 2
SYMATTR InstName V3
SYMATTR Value 5
SYMBOL voltage -64 352 R0
WINDOW 3 24 96 Invisible 2
WINDOW 123 0 0 Left 2
WINDOW 39 0 0 Left 2
SYMATTR InstName V4
SYMATTR Value PULSE(0 15 1m 1p 1p 1m 2m)
SYMBOL Opamps\\UniversalOpamp2 672 208 R0
SYMATTR InstName U2
SYMBOL res 576 96 R90
WINDOW 0 0 56 VBottom 2
WINDOW 3 32 56 VTop 2
SYMATTR InstName R5
SYMATTR Value 10k
SYMBOL res 576 288 R0
SYMATTR InstName R3
SYMATTR Value 20k
SYMBOL res 720 96 R90
WINDOW 0 0 56 VBottom 2
WINDOW 3 32 56 VTop 2
SYMATTR InstName R4
SYMATTR Value 10k
TEXT -370 344 Left 2 !.tran 10m
TEXT -368 -104 Left 2 !.model S2 SW(Ron=.001 Roff=1G Vt=1)
TEXT -72 496 Left 2 ;Control = sortie du trigger (0-15)
